79
dgrtl.pdb
N         31.23300       21.09000       21.45900
C         32.26200       20.67000       20.51400
C         32.12800       19.36400       19.75000
O         32.54600       19.31700       18.55800
C         33.63800       20.71600       21.24200
C         34.17400       22.12900       21.35400
O         35.25200       22.32200       21.95800
O         33.54400       23.08600       20.88300
N         31.69700       18.31100       20.40600
C         31.56800       16.96200       19.82500
C         30.32000       16.69800       19.05100
O         30.19800       15.65700       18.36600
N         29.34000       17.59400       19.07600
C         28.10800       17.43900       18.27600
C         28.37500       17.99900       16.88700
O         29.32600       18.78600       16.69000
C         26.92600       18.19100       18.89200
C         26.62100       17.79900       20.35200
C         26.01000       16.37000       20.28000
N         26.97500       15.52100       20.94200
C         27.60300       14.42300       20.65500
N         27.47900       13.73300       19.53700
N         28.51900       13.96700       21.55000
N         27.51000       17.68900       15.95400
C         27.57400       18.19200       14.56300
C         26.48200       19.28000       14.43200
O         25.60900       19.38800       15.28700
C         27.29900       17.05500       13.53300
O         25.92500       16.61100       13.91300
C         28.23600       15.86400       13.55800
N         26.58500       20.06300       13.37800
C         25.59400       21.10900       13.07200
C         24.24100       20.43600       12.85700
O         23.26400       20.95100       13.32900
C         26.08400       21.88800       11.83300
C         27.42600       22.61600       11.90200
C         27.71800       23.34100       10.57800
C         27.38000       23.72100       12.95500
H         31.56900       21.42000       22.43400
H         32.13700       21.42100       19.66600
H         33.51400       20.28500       22.29000
H         34.38100       20.10500       20.63000
H         35.77800       21.50100       22.38300
H         31.41800       18.44200       21.44400
H         32.45300       16.79800       19.12600
H         31.53500       16.24800       20.71300
H         29.44800       18.46900       19.70500
H         27.83600       16.33300       18.24000
H         27.15700       19.30700       18.86200
H         26.00600       17.91500       18.27900
H         27.57800       17.79200       20.97100
H         25.91000       18.53900       20.84900
H         25.00700       16.33500       20.82000
H         25.81200       16.04100       19.20700
H         27.24000       15.89500       21.92300
H         26.80500       14.07500       18.76200
H         28.05100       12.82500       19.39500
H         28.70300       14.51700       22.46400
H         26.69700       17.02300       16.21600
H         28.61500       18.60300       14.34500
H         27.44100       17.45600       12.47600
H         25.88400       15.51200       13.92400
H         27.62700       14.90100       13.57800
H         28.89300       15.87800       12.62700
H         28.89300       15.91700       14.48800
H         27.42900       19.93300       12.71200
H         25.47400       21.85700       13.92400
H         26.15200       21.14200       10.97400
H         25.32200       22.72800       11.71700
H         28.21400       21.82700       12.14000
H         26.73500       23.61800       10.07100
H         28.31800       24.28800       10.78700
H         28.31800       22.65400        9.89300
H         26.29400       23.97300       13.19500
H         27.90600       23.36500       13.90200
H         27.90600       24.65000       12.55400
H         30.60400       20.30000       21.60100
H         29.01500       13.13700       21.36700
H         24.16700       19.55900       12.31900
