103

O                    -3.62505304     5.90244897    -2.75292388
Si                   -4.05843083    -1.77574288    -1.64118904
Si                    1.77553431    -3.81088077    -1.63587716
Si                    4.46849719    -3.14534814    -0.20021349
Si                    5.35137295    -0.76629649    -2.10588666
Si                    1.69009848     3.61031704    -2.22683568
Si                    3.09168933     1.04892063    -1.27875292
Si                    0.78212680    -1.02602937    -0.90076856
Si                   -1.09660738     2.74578525    -3.35964043
Si                   -2.95674088    -4.48281446    -2.56080170
Si                   -0.67847982    -5.32190709    -0.57897461
O                    -5.51098562    -1.52671331    -2.25232780
O                     3.16433877    -3.76715163    -0.85335384
O                     4.93241010    -1.85250781    -1.00912105
O                     4.20126889    -2.73443036     1.31450385
O                    -3.35274153    -2.95533604    -2.43976765
O                     0.91523876    -1.29864881     0.67425426
O                     1.13983234    -2.35300616    -1.71326581
O                     4.25654037     0.38719195    -2.14317338
O                     1.99117917    -4.31719523    -3.12826624
O                     5.42586067    -1.39483083    -3.56373246
O                    -2.71381020    -4.81189137    -4.10919104
O                     2.39316931     4.71323946    -3.13959678
O                     2.75856841     2.47828108    -1.91363236
O                     1.77852316     0.14319661    -1.32942474
O                    -0.71041491    -0.60587859    -1.25432710
O                    -1.56918986     1.32404243    -2.80332960
O                     0.44156726     2.98483428    -3.00560271
O                    -4.12590926    -5.41090754    -1.96145736
O                    -1.62102936    -4.74309459    -1.72554998
O                    -0.67580164    -6.90935319    -0.59718970
O                    -1.19308355    -4.82014345     0.83988769
O                    -1.29028488     2.73532598    -4.95056412
O                    -3.22069087    -0.43170268    -1.81517596
O                     0.80775981    -4.80595322    -0.83875056
Al                   -1.89668371     0.41156096    -1.53284394
H                    -1.15480548    -1.47252232    -1.36320982
Si                    0.77004015    -1.70024727     2.22368404
Si                    3.78557721    -1.83176895     2.56060260
Si                   -2.23973538     5.36195098    -2.16992248
Si                    4.23835170     1.15627897     1.68856017
Si                   -5.06392513     0.33489089     2.21837267
Si                   -4.07051817    -2.44996046     1.48326460
Si                   -1.39170688    -3.88755064     2.11533941
Si                    1.10864304     4.87672847     0.60593471
Si                    2.07935171     2.93114350     2.77078373
Si                   -0.33164985     1.00682493     3.14329704
Si                   -2.60991099     1.84591721     1.16147013
Si                   -1.97944263     4.86268423     0.90034178
O                     2.22259494    -1.94927683     2.83482280
O                    -1.04288314     6.28715387    -2.67955420
O                     4.19886771    -0.32988318     2.27230875
O                    -6.45273002     0.29116138     1.43584942
O                     0.06435072    -0.52065382     3.02226316
O                    -4.20362971    -2.17734080    -0.09175824
O                    -4.42822360    -1.12298408     2.29576140
O                     3.44892060     2.13242951     2.66624050
O                     3.55831912     1.21448768     0.23736443
O                    -5.27956998     0.84120536     3.71076174
O                    -2.58183809     5.91137994     1.93443344
O                     2.02092459     3.57803771     4.23173435
O                    -0.57458107     1.33590111     4.69168665
O                    -5.06691428    -3.61918660     1.91192023
O                    -2.57797588    -2.87011143     1.83682201
O                    -1.71920087    -4.80003183     3.38582557
O                     1.59725165     6.39187021     0.58372121
O                     2.03012429     4.06295465     1.62803089
O                     0.83751837     1.93491774     2.54395282
O                    -1.66736124     1.26710467     2.30804557
O                    -2.61258918     3.43336333     1.17968522
O                    -0.40546085     4.78496660     1.11612850
O                     1.17996274     4.26605519    -0.86405328
O                    -2.09530715     1.34415368    -0.25739219
O                    -1.98644102     3.88858364    -2.69497405
O                    -2.31879903     5.36950510    -0.57370566
O                    -0.06769982    -3.04428709     2.39767146
O                    -4.09615028     1.32996364     1.42124601
O                     5.81238449     1.60613238     1.46754782
H                     6.37669204     1.58496224     2.22739858
O                     5.61048281    -4.32388631    -0.28824901
H                     6.49691891    -4.10533586    -0.04290418
O                     6.82776089    -0.13708955    -1.72496492
H                     6.87441914     0.45699218    -0.98746850
O                     4.61680920    -2.29278339     3.89931849
H                     4.31407987    -3.05212829     4.37593617
H                    -4.27760424     5.27883208    -3.03056512
H                    -5.58558376    -0.87845800    -2.93542190
H                    -0.86997157     3.40568716    -5.46711748
H                    -2.37635577    -4.14838601    -4.69108491
H                     1.90601459     5.50559691    -3.30448727
H                     2.66807355    -3.94609272    -3.67343363
H                    -4.90133912    -5.57780058    -2.47418226
H                    -0.95594406     7.16403163    -2.33763506
H                     5.95611777    -0.97737895    -4.22469175
H                    -0.29451640    -7.37914410    -1.32276523
H                    -6.45859853     0.40918918     0.49833675
H                    -1.38795562     1.08338229     5.09803757
H                    -3.51852184     6.02157608     1.97139510
H                    -5.96362909    -3.61604604     1.61178510
H                    -6.02996377     1.37342209     3.92949166
H                     1.38827336     3.26779500     4.86230375
H                     1.71273801     6.83707671     1.40864109
H                    -2.25037765    -5.57616200     3.28035318
